----  / VibeyMapTools 2.1.0-2.0.0-alpha10-25-g50be6d63-dirty ----

--- Options Summary ---
    "nopercent" was set to "1" (from command line)
    "nostat" was set to "1" (from command line)
    "noprogress" was set to "1" (from command line)
    "path" was set to ""C:/Users/djdac/source/repos/VibeyMapTools/tests/maps\q2_wal_metadata"" (from command line)

Input file: C:\Users\djdac\source\repos\VibeyMapTools\tests\maps\q1_detail_fence.map
Output file: C:\Users\djdac\source\repos\VibeyMapTools\q1_detail_fence.bsp

INFO: using built-in palette.
WARNING: texture name openquartzmirror (C:/Users/djdac/source/repos/VibeyMapTools/tests/maps\deprecated/free_wad.wad) is not null-terminated
INFO: world extents calculated to 872 units
Processing hull 0...
fixing up cluster at 200 -16 128
fixing up cluster at 160 0 128
fixing up cluster at 160 -32 168
fixing up cluster at 184 -112 152
fixing up cluster at 184 -80 88
fixing up cluster at 200 -144 88
fixing up cluster at 160 -160 88
fixing up cluster at 120 -80 128
fixing up cluster at 88 -80 128
fixing up cluster at 72 -80 184
fixing up cluster at 72 -80 128
fixing up cluster at 56 -80 128
fixing up cluster at 72 -80 72
Processing hull 1...
ERROR TO FIX LATER: clock counter ended too early
Processing hull 2...
ERROR TO FIX LATER: clock counter ended too early
Writing C:\Users\djdac\source\repos\VibeyMapTools\q1_detail_fence.bsp as Quake BSP bsp29
Wrote C:\Users\djdac\source\repos\VibeyMapTools\q1_detail_fence.bsp

count   lump name    byte size 
      1 models               64
     42 planes              840
    100 vertexes           1200
     47 nodes              1128
     15 texinfos            600
     89 faces              1780
     22 clipnodes           176
     19 leafs               532
     89 marksurfaces        178
    191 edges               764
    368 surfedges          1472
      3 textures          12376
        lightdata             0
        visdata               0
        entdata             347
running with lower priority
