----  / VibeyMapTools 2.1.0-2.0.0-alpha10-25-g50be6d63-dirty ----

--- Options Summary ---
    "nopercent" was set to "1" (from command line)
    "nostat" was set to "1" (from command line)
    "noprogress" was set to "1" (from command line)
    "path" was set to ""C:/Users/djdac/source/repos/VibeyMapTools/tests/maps\q2_wal_metadata"" (from command line)

Input file: C:\Users\djdac\source\repos\VibeyMapTools\tests\maps\q1_hdrtest.map
Output file: C:\Users\djdac\source\repos\VibeyMapTools\q1_hdrtest.bsp

INFO: using built-in palette.
WARNING: texture name openquartzmirror (C:/Users/djdac/source/repos/VibeyMapTools/tests/maps\deprecated/free_wad.wad) is not null-terminated
INFO: world extents calculated to 1064 units
WARNING: unable to find texture skip
Processing hull 0...
Processing hull 1...
Processing hull 2...
Writing C:\Users\djdac\source\repos\VibeyMapTools\q1_hdrtest.bsp as Quake BSP bsp29
Wrote C:\Users\djdac\source\repos\VibeyMapTools\q1_hdrtest.bsp

count   lump name    byte size 
      1 models               64
     17 planes              340
     28 vertexes            336
      6 nodes               144
      3 texinfos            120
     24 faces               480
     12 clipnodes            96
      2 leafs                56
     24 marksurfaces         48
     51 edges               204
    100 surfedges           400
      2 textures           5492
        lightdata             0
        visdata               0
        entdata             333
running with lower priority
