----  / VibeyMapTools 2.1.0-2.0.0-alpha10-25-g50be6d63-dirty ----

--- Options Summary ---
    "nopercent" was set to "1" (from command line)
    "nostat" was set to "1" (from command line)
    "noprogress" was set to "1" (from command line)
    "path" was set to ""C:/Users/djdac/source/repos/VibeyMapTools/tests/maps\q2_wal_metadata"" (from command line)

Input file: C:\Users\djdac\source\repos\VibeyMapTools\tests\maps\q1_light_switchableshadow_selfshadows.map
Output file: C:\Users\djdac\source\repos\VibeyMapTools\q1_light_switchableshadow_selfshadows.bsp

INFO: using built-in palette.
WARNING: texture name openquartzmirror (C:/Users/djdac/source/repos/VibeyMapTools/tests/maps\deprecated/free_wad.wad) is not null-terminated
INFO: world extents calculated to 3208 units
WARNING: unable to find texture skip
Processing hull 0...
Processing hull 1...
ERROR TO FIX LATER: clock counter ended too early
ERROR TO FIX LATER: clock counter ended too early
Processing hull 2...
ERROR TO FIX LATER: clock counter ended too early
ERROR TO FIX LATER: clock counter ended too early
Writing C:\Users\djdac\source\repos\VibeyMapTools\q1_light_switchableshadow_selfshadows.bsp as Quake BSP bsp29
Wrote C:\Users\djdac\source\repos\VibeyMapTools\q1_light_switchableshadow_selfshadows.bsp

count   lump name    byte size 
      2 models              128
     40 planes              800
     58 vertexes            696
     17 nodes               408
      7 texinfos            280
     50 faces              1000
     34 clipnodes           272
     14 leafs               392
     50 marksurfaces        100
    105 edges               420
    208 surfedges           832
      3 textures          10976
        lightdata             0
        visdata               0
        entdata             351
running with lower priority
