----  / VibeyMapTools 2.1.0-2.0.0-alpha10-25-g50be6d63-dirty ----

--- Options Summary ---
    "nopercent" was set to "1" (from command line)
    "nostat" was set to "1" (from command line)
    "noprogress" was set to "1" (from command line)
    "path" was set to ""C:/Users/djdac/source/repos/VibeyMapTools/tests/maps\q2_wal_metadata"" (from command line)

Input file: C:\Users\djdac\source\repos\VibeyMapTools\tests\maps\q1_light_hlform.map
Output file: C:\Users\djdac\source\repos\VibeyMapTools\q1_light_hlform.bsp

INFO: using built-in palette.
WARNING: texture name openquartzmirror (C:/Users/djdac/source/repos/VibeyMapTools/tests/maps\deprecated/free_wad.wad) is not null-terminated
INFO: world extents calculated to 3208 units
WARNING: unable to find texture skip
Processing hull 0...
Processing hull 1...
ERROR TO FIX LATER: clock counter ended too early
Processing hull 2...
ERROR TO FIX LATER: clock counter ended too early
Writing C:\Users\djdac\source\repos\VibeyMapTools\q1_light_hlform.bsp as Quake BSP bsp29
Wrote C:\Users\djdac\source\repos\VibeyMapTools\q1_light_hlform.bsp

count   lump name    byte size 
      1 models               64
     34 planes              680
     61 vertexes            732
     13 nodes               312
      5 texinfos            200
     48 faces               960
     42 clipnodes           336
      6 leafs               168
     57 marksurfaces        114
    108 edges               432
    214 surfedges           856
      2 textures           5492
        lightdata             0
        visdata               0
        entdata             394
running with lower priority
