----  / VibeyMapTools 2.1.0-2.0.0-alpha10-25-g50be6d63-dirty ----

--- Options Summary ---
    "nopercent" was set to "1" (from command line)
    "nostat" was set to "1" (from command line)
    "noprogress" was set to "1" (from command line)
    "path" was set to ""C:/Users/djdac/source/repos/VibeyMapTools/tests/maps\q2_wal_metadata"" (from command line)

Input file: C:\Users\djdac\source\repos\VibeyMapTools\tests\maps\q1_light_sun_artifact.map
Output file: C:\Users\djdac\source\repos\VibeyMapTools\q1_light_sun_artifact.bsp

INFO: using built-in palette.
WARNING: texture name openquartzmirror (C:/Users/djdac/source/repos/VibeyMapTools/tests/maps\deprecated/free_wad.wad) is not null-terminated
INFO: world extents calculated to 3464 units
WARNING: unable to find texture skip
Processing hull 0...
Processing hull 1...
ERROR TO FIX LATER: clock counter ended too early
Processing hull 2...
ERROR TO FIX LATER: clock counter ended too early
Writing C:\Users\djdac\source\repos\VibeyMapTools\q1_light_sun_artifact.bsp as Quake BSP bsp29
Wrote C:\Users\djdac\source\repos\VibeyMapTools\q1_light_sun_artifact.bsp

count   lump name    byte size 
      1 models               64
     34 planes              680
     84 vertexes           1008
     60 nodes              1440
     11 texinfos            440
     81 faces              1620
     12 clipnodes            96
     36 leafs              1008
     81 marksurfaces        162
    164 edges               656
    326 surfedges          1304
      4 textures          92620
        lightdata             0
        visdata               0
        entdata             265
running with lower priority
