----  / VibeyMapTools 2.1.0-2.0.0-alpha10-25-g50be6d63-dirty ----

--- Options Summary ---
    "nopercent" was set to "1" (from command line)
    "nostat" was set to "1" (from command line)
    "noprogress" was set to "1" (from command line)
    "path" was set to ""C:/Users/djdac/source/repos/VibeyMapTools/tests/maps\q2_wal_metadata"" (from command line)

Input file: C:\Users\djdac\source\repos\VibeyMapTools\tests\maps\q1_light_bounce_litwater.map
Output file: C:\Users\djdac\source\repos\VibeyMapTools\q1_light_bounce_litwater.bsp

INFO: using built-in palette.
WARNING: texture name openquartzmirror (C:/Users/djdac/source/repos/VibeyMapTools/tests/maps\deprecated/free_wad.wad) is not null-terminated
INFO: world extents calculated to 1064 units
WARNING: unable to find texture skip
Processing hull 0...
Processing hull 1...
Processing hull 2...
Writing C:\Users\djdac\source\repos\VibeyMapTools\q1_light_bounce_litwater.bsp as Quake BSP bsp29
Wrote C:\Users\djdac\source\repos\VibeyMapTools\q1_light_bounce_litwater.bsp

count   lump name    byte size 
      1 models               64
     18 planes              360
     28 vertexes            336
      7 nodes               168
      4 texinfos            160
     28 faces               560
     12 clipnodes            96
      3 leafs                84
     28 marksurfaces         56
     59 edges               236
    116 surfedges           464
      3 textures          10976
        lightdata             0
        visdata               0
        entdata             178
running with lower priority
