----  / VibeyMapTools 2.1.0-2.0.0-alpha10-25-g50be6d63-dirty ----

--- Options Summary ---
    "nopercent" was set to "1" (from command line)
    "nostat" was set to "1" (from command line)
    "noprogress" was set to "1" (from command line)
    "path" was set to ""C:/Users/djdac/source/repos/VibeyMapTools/tests/maps\q2_wal_metadata"" (from command line)

Input file: C:\Users\djdac\source\repos\VibeyMapTools\tests\maps\q1_litwater_opt_in.map
Output file: C:\Users\djdac\source\repos\VibeyMapTools\q1_litwater_opt_in.bsp

INFO: using built-in palette.
WARNING: texture name openquartzmirror (C:/Users/djdac/source/repos/VibeyMapTools/tests/maps\deprecated/free_wad.wad) is not null-terminated
INFO: world extents calculated to 1064 units
WARNING: unable to find texture skip
Processing hull 0...
Processing hull 1...
Processing hull 2...
Writing C:\Users\djdac\source\repos\VibeyMapTools\q1_litwater_opt_in.bsp as Quake BSP bsp29
Wrote C:\Users\djdac\source\repos\VibeyMapTools\q1_litwater_opt_in.bsp

count   lump name    byte size 
      1 models               64
     38 planes              760
     64 vertexes            768
     19 nodes               456
     18 texinfos            720
     66 faces              1320
     26 clipnodes           208
     14 leafs               392
    106 marksurfaces        212
    139 edges               556
    276 surfedges          1104
      3 textures          10976
        lightdata             0
        visdata               0
        entdata             266
running with lower priority
