----  / VibeyMapTools 2.1.0-2.0.0-alpha10-25-g50be6d63-dirty ----

--- Options Summary ---
    "nopercent" was set to "1" (from command line)
    "nostat" was set to "1" (from command line)
    "noprogress" was set to "1" (from command line)
    "path" was set to ""C:/Users/djdac/source/repos/VibeyMapTools/tests/maps\q2_wal_metadata"" (from command line)

Input file: C:\Users\djdac\source\repos\VibeyMapTools\tests\maps\q1_light_black.map
Output file: C:\Users\djdac\source\repos\VibeyMapTools\q1_light_black.bsp

INFO: using built-in palette.
WARNING: texture name openquartzmirror (C:/Users/djdac/source/repos/VibeyMapTools/tests/maps\deprecated/free_wad.wad) is not null-terminated
INFO: world extents calculated to 3208 units
WARNING: unable to find texture skip
Processing hull 0...
Processing hull 1...
ERROR TO FIX LATER: clock counter ended too early
Processing hull 2...
ERROR TO FIX LATER: clock counter ended too early
Writing C:\Users\djdac\source\repos\VibeyMapTools\q1_light_black.bsp as Quake BSP bsp29
Wrote C:\Users\djdac\source\repos\VibeyMapTools\q1_light_black.bsp

count   lump name    byte size 
      1 models               64
     19 planes              380
     51 vertexes            612
      8 nodes               192
      6 texinfos            240
     45 faces               900
     12 clipnodes            96
      4 leafs               112
     48 marksurfaces         96
    109 edges               436
    200 surfedges           800
      3 textures          10976
        lightdata             0
        visdata               0
        entdata             312
running with lower priority
