----  / VibeyMapTools 2.1.0-2.0.0-alpha10-25-g50be6d63-dirty ----

--- Options Summary ---
    "nopercent" was set to "1" (from command line)
    "nostat" was set to "1" (from command line)
    "noprogress" was set to "1" (from command line)
    "path" was set to ""C:/Users/djdac/source/repos/VibeyMapTools/tests/maps\q2_wal_metadata"" (from command line)

Input file: C:\Users\djdac\source\repos\VibeyMapTools\tests\maps\q1_sunlight.map
Output file: C:\Users\djdac\source\repos\VibeyMapTools\q1_sunlight.bsp

INFO: using built-in palette.
WARNING: texture name openquartzmirror (C:/Users/djdac/source/repos/VibeyMapTools/tests/maps\deprecated/free_wad.wad) is not null-terminated
INFO: world extents calculated to 616 units
WARNING: unable to find texture skip
Processing hull 0...
Processing hull 1...
ERROR TO FIX LATER: clock counter ended too early
Processing hull 2...
ERROR TO FIX LATER: clock counter ended too early
Writing C:\Users\djdac\source\repos\VibeyMapTools\q1_sunlight.bsp as Quake BSP bsp29
Wrote C:\Users\djdac\source\repos\VibeyMapTools\q1_sunlight.bsp

count   lump name    byte size 
      1 models               64
     22 planes              440
      8 vertexes             96
     11 nodes               264
      6 texinfos            240
      6 faces               120
     12 clipnodes            96
      3 leafs                84
      6 marksurfaces         12
     13 edges                52
     24 surfedges            96
      3 textures          49056
        lightdata             0
        visdata               0
        entdata             170
running with lower priority
