----  / VibeyMapTools 2.1.0-2.0.0-alpha10-25-g50be6d63-dirty ----

--- Options Summary ---
    "nopercent" was set to "1" (from command line)
    "nostat" was set to "1" (from command line)
    "noprogress" was set to "1" (from command line)
    "path" was set to ""C:/Users/djdac/source/repos/VibeyMapTools/tests/maps\q2_wal_metadata"" (from command line)
    "q2bsp" was set to "1" (from command line)
    "chop" was set to "1" (from game target)
    "maxedges" was set to "0" (from game target)

Input file: C:\Users\djdac\source\repos\VibeyMapTools\tests\maps\q2_light_black.map
Output file: C:\Users\djdac\source\repos\VibeyMapTools\q2_light_black.bsp

using gamedir: 'C:\Users\djdac\source\repos\VibeyMapTools\tests'
WARNING: failed to find basedir 'C:\Users\djdac\source\repos\VibeyMapTools\baseq2'
img::LoadPCXPalette: Failed to load 'pics/colormap.pcx'.
INFO: using built-in palette.
WARNING: Couldn't locate texture for skip
WARNING: Couldn't locate texture for e1u1/brick1_1
INFO: world extents calculated to 3032 units
Processing map...
Writing C:\Users\djdac\source\repos\VibeyMapTools\q2_light_black.bsp as Quake II BSP IBSP:38
Wrote C:\Users\djdac\source\repos\VibeyMapTools\q2_light_black.bsp

count   lump name    byte size 
      1 models               48
     17 planes              340
     38 vertexes            456
      6 nodes               168
     10 texinfos            760
     32 faces               640
      8 leafs               224
     32 leaffaces            64
      6 leafbrushes          12
     69 edges               276
    136 surfedges           544
      6 brushes              72
     36 brushsides          144
      2 areas                16
      1 areaportals           8
        lightdata             0
        visdata               0
        entdata             280
running with lower priority
