----  / VibeyMapTools 2.1.0-2.0.0-alpha10-25-g50be6d63-dirty ----

--- Options Summary ---
    "nopercent" was set to "1" (from command line)
    "nostat" was set to "1" (from command line)
    "noprogress" was set to "1" (from command line)
    "path" was set to ""C:/Users/djdac/source/repos/VibeyMapTools/tests/maps\q2_wal_metadata"" (from command line)
    "q2bsp" was set to "1" (from command line)
    "chop" was set to "1" (from game target)
    "maxedges" was set to "0" (from game target)

Input file: C:\Users\djdac\source\repos\VibeyMapTools\tests\maps\q2_light_group.map
Output file: C:\Users\djdac\source\repos\VibeyMapTools\q2_light_group.bsp

using gamedir: 'C:\Users\djdac\source\repos\VibeyMapTools\tests'
WARNING: failed to find basedir 'C:\Users\djdac\source\repos\VibeyMapTools\baseq2'
img::LoadPCXPalette: Failed to load 'pics/colormap.pcx'.
INFO: using built-in palette.
WARNING: Couldn't locate texture for skip
WARNING: Couldn't locate texture for e1u1/twall2_1
WARNING: texture e1u1/sky1 has empty width/height 
WARNING: texture e1u1/baselt_5 has empty width/height 
INFO: world extents calculated to 4920 units
Processing map...
Writing C:\Users\djdac\source\repos\VibeyMapTools\q2_light_group.bsp as Quake II BSP IBSP:38
Wrote C:\Users\djdac\source\repos\VibeyMapTools\q2_light_group.bsp

count   lump name    byte size 
      4 models              192
     71 planes             1420
    231 vertexes           2772
     67 nodes              1876
     35 texinfos           2660
    187 faces              3740
     72 leafs              2016
    258 leaffaces           516
     26 leafbrushes          52
    395 edges              1580
    788 surfedges          3152
     22 brushes             264
    132 brushsides          528
      2 areas                16
      1 areaportals           8
        lightdata             0
        visdata               0
        entdata            1108
running with lower priority
