----  / VibeyMapTools 2.1.0-2.0.0-alpha10-25-g50be6d63-dirty ----

--- Options Summary ---
    "nopercent" was set to "1" (from command line)
    "nostat" was set to "1" (from command line)
    "noprogress" was set to "1" (from command line)
    "path" was set to ""C:/Users/djdac/source/repos/VibeyMapTools/tests/maps\q2_wal_metadata"" (from command line)

Input file: C:\Users\djdac\source\repos\VibeyMapTools\tests\maps\deprecated\suntest.map
Output file: C:\Users\djdac\source\repos\VibeyMapTools\suntest.bsp

INFO: using built-in palette.
WARNING: texture name openquartzmirror (C:/Users/djdac/source/repos/VibeyMapTools/tests/maps\deprecated\free_wad.wad) is not null-terminated
INFO: world extents calculated to 2184 units
WARNING: unable to find texture skip
Processing hull 0...
Processing hull 1...
ERROR TO FIX LATER: clock counter ended too early
Processing hull 2...
ERROR TO FIX LATER: clock counter ended too early
Writing C:\Users\djdac\source\repos\VibeyMapTools\suntest.bsp as Quake BSP bsp29
Wrote C:\Users\djdac\source\repos\VibeyMapTools\suntest.bsp

count   lump name    byte size 
      1 models               64
     60 planes             1200
    116 vertexes           1392
     33 nodes               792
     10 texinfos            400
     96 faces              1920
     69 clipnodes           552
     17 leafs               476
    124 marksurfaces        248
    211 edges               844
    420 surfedges          1680
      4 textures          70860
        lightdata             0
        visdata               0
        entdata             559
running with lower priority
